Info: SIMULATION PARAMETERS:
Info: TIMESTEP               2
Info: NUMBER OF STEPS        0
Info: STEPS PER CYCLE        20
Info: FIRST LDB TIMESTEP     100
Info: LAST LDB TIMESTEP     -1
Info: HOM BACKGROUND SCALING 1
Info: MIN ATOMS PER PATCH    40
Info: VELOCITY FILE          input.0.vel
Info: CENTER OF MASS MOVING INITIALLY? NO
Info: DIELECTRIC             80
Info: EXCLUDE                SCALED ONE-FOUR
Info: 1-4 ELECTROSTATICS SCALED BY 1
Info: MODIFIED 1-4 VDW PARAMETERS WILL BE USED
Info: DCD FILENAME           input.1.dcd
Info: DCD FREQUENCY          500
Info: DCD FIRST STEP         500
Info: DCD FILE WILL CONTAIN UNIT CELL DATA
Info: NO EXTENDED SYSTEM TRAJECTORY OUTPUT
Info: NO VELOCITY DCD OUTPUT
Info: NO FORCE DCD OUTPUT
Info: OUTPUT FILENAME        input.1
Info: BINARY OUTPUT FILES WILL BE USED
Info: NO RESTART FILE
Info: SWITCHING ACTIVE
Info: VDW FORCE SWITCHING ACTIVE
Info: SWITCHING ON           10
Info: SWITCHING OFF          12
Info: PAIRLIST DISTANCE      14.5
Info: PAIRLIST SHRINK RATE   0.01
Info: PAIRLIST GROW RATE     0.01
Info: PAIRLIST TRIGGER       0.3
Info: PAIRLISTS PER CYCLE    2
Info: PAIRLISTS ENABLED
Info: MARGIN                 0
Info: HYDROGEN GROUP CUTOFF  2.5
Info: PATCH DIMENSION        17
Info: ENERGY OUTPUT STEPS    1000
Info: CROSSTERM ENERGY INCLUDED IN DIHEDRAL
Info: TIMING OUTPUT STEPS    1000
Info: COLLECTIVE VARIABLES CALCULATION REQUESTED
Info: COLLECTIVE VARIABLES CONFIGURATION   colvars.conf
Info: LANGEVIN DYNAMICS ACTIVE
Info: LANGEVIN TEMPERATURE   300.15
Info: LANGEVIN USING BBK INTEGRATOR
Info: LANGEVIN DAMPING COEFFICIENT IS 1 INVERSE PS
Info: LANGEVIN DYNAMICS NOT APPLIED TO HYDROGENS
Info: USING VERLET I (r-RESPA) MTS SCHEME.
Info: C1 SPLITTING OF LONG RANGE ELECTROSTATICS
Info: PLACING ATOMS IN PATCHES BY HYDROGEN GROUPS
Info: RIGID BONDS TO HYDROGEN : ALL
Info:         ERROR TOLERANCE : 1e-08
Info:          MAX ITERATIONS : 100
Info: RIGID WATER USING SETTLE ALGORITHM
Info: RANDOM NUMBER SEED     1520473200
Info: USE HYDROGEN BONDS?    NO
Info: COORDINATE PDB         vac_protein2.pdb
Info: STRUCTURE FILE         vac_protein2.psf
Info: PARAMETER file: CHARMM format!
Info: PARAMETERS             toppar/par_all36m_prot.prm
Info: PARAMETERS             toppar/par_all36_na.prm
Info: PARAMETERS             toppar/par_all36_carb.prm
Info: PARAMETERS             toppar/par_all36_lipid.prm
Info: PARAMETERS             toppar/par_all36_cgenff.prm
Info: PARAMETERS             toppar/toppar_water_ions.str
Info: PARAMETERS             toppar/toppar_dum_noble_gases.str
Info: PARAMETERS             toppar/toppar_all36_prot_d_aminoacids.str
Info: PARAMETERS             toppar/toppar_all36_prot_fluoro_alkanes.str
Info: PARAMETERS             toppar/toppar_all36_prot_heme.str
Info: PARAMETERS             toppar/toppar_all36_prot_na_combined.str
Info: PARAMETERS             toppar/toppar_all36_prot_retinol.str
Info: PARAMETERS             toppar/toppar_all36_na_nad_ppi.str
Info: PARAMETERS             toppar/toppar_all36_na_rna_modified.str
Info: PARAMETERS             ../2ja/2ja.prm
Info: USING ARITHMETIC MEAN TO COMBINE L-J SIGMA PARAMETERS
Info: BINARY COORDINATES     input.0.coor
Info: SUMMARY OF PARAMETERS:
Info: 1108 BONDS
Info: 3457 ANGLES
Info: 8887 DIHEDRAL
Info: 257 IMPROPER
Info: 10 CROSSTERM
Info: 392 VDW
Info: 24 VDW_PAIRS
Info: 0 NBTHOLE_PAIRS
Info: STRUCTURE SUMMARY:
Info: 6392 ATOMS
Info: 6488 BONDS
Info: 11705 ANGLES
Info: 17330 DIHEDRALS
Info: 1075 IMPROPERS
Info: 392 CROSSTERMS
Info: 0 EXCLUSIONS
Info: 3146 RIGID BONDS
Info: 16030 DEGREES OF FREEDOM
Info: 3246 HYDROGEN GROUPS
Info: 4 ATOMS IN LARGEST HYDROGEN GROUP
Info: 3246 MIGRATION GROUPS
Info: 4 ATOMS IN LARGEST MIGRATION GROUP
Info: TOTAL MASS = 45928 amu
Info: TOTAL CHARGE = -35 e
Info: ADDED 35120 IMPLICIT EXCLUSIONS
Info: NONBONDED TABLE R-SQUARED SPACING: 0.0625
Info: NONBONDED TABLE SIZE: 769 POINTS
Info: REDUCING NUMBER OF PATCHES TO IMPROVE LOAD BALANCE
Info: REMOVING COM VELOCITY -0.0673049 0.0946813 -0.0699336
TCL: Running for 1000000 steps
ETITLE: TS BOND ANGLE DIHED IMPRP ELECT VDW BOUNDARY MISC KINETIC TOTAL TEMP POTENTIAL TOTAL3 TEMPAVG
ENERGY: 0 1150.4506 3240.8678 3961.3553 206.1170 -44.8650 -1807.0166 0.0000 77.7822 4751.1325 11535.8238 298.3005 6784.6913 11594.5841 298.3005
ENERGY: 200000 1189.0470 3312.3571 3910.0569 180.1909 -45.2937 -1897.2014 0.0000 66.2822 4742.5446 11457.9837 297.7613 6715.4391 11515.3779 298.2664
ENERGY: 400000 1191.7949 3255.1812 3918.1907 187.8930 -44.7018 -1870.6566 0.0000 62.2900 4792.6684 11492.6597 300.9084 6699.9913 11551.1646 299.4683
ENERGY: 600000 1163.1769 3275.2504 3926.1054 190.8574 -41.4294 -1872.3279 0.0000 59.3919 4834.4573 11535.4820 303.5321 6701.0248 11596.2496 299.3629
ENERGY: 800000 1190.4133 3267.0810 3946.4239 179.4489 -44.1216 -1895.7631 0.0000 61.7192 4843.8523 11549.0539 304.1219 6705.2016 11607.7129 299.2750
ENERGY: 1000000 1179.8736 3268.1717 3910.2538 195.0807 -43.0401 -1838.8820 0.0000 68.1959 4726.8373 11466.4909 296.7751 6739.6536 11523.9486 296.3277
