Info: SIMULATION PARAMETERS:
Info: TIMESTEP               2
Info: NUMBER OF STEPS        0
Info: STEPS PER CYCLE        20
Info: PERIODIC CELL BASIS 1  140.638 0 0
Info: PERIODIC CELL BASIS 2  0 106.691 0
Info: PERIODIC CELL BASIS 3  0 0 88.2622
Info: PERIODIC CELL CENTER   0 0 0
Info: WRAPPING WATERS AROUND PERIODIC BOUNDARIES ON OUTPUT.
Info: WRAPPING ALL CLUSTERS AROUND PERIODIC BOUNDARIES ON OUTPUT.
Info: FIRST LDB TIMESTEP     100
Info: LAST LDB TIMESTEP     -1
Info: HOM BACKGROUND SCALING 1
Info: PME BACKGROUND SCALING 1
Info: MIN ATOMS PER PATCH    40
Info: VELOCITY FILE          step4_equilibration.vel
Info: CENTER OF MASS MOVING INITIALLY? NO
Info: DIELECTRIC             1
Info: EXCLUDE                SCALED ONE-FOUR
Info: 1-4 ELECTROSTATICS SCALED BY 1
Info: MODIFIED 1-4 VDW PARAMETERS WILL BE USED
Info: DCD FILENAME           hydrate.0.dcd
Info: DCD FREQUENCY          10000
Info: DCD FIRST STEP         10000
Info: DCD FILE WILL CONTAIN UNIT CELL DATA
Info: XST FILENAME           hydrate.0.xst
Info: XST FREQUENCY          500
Info: NO VELOCITY DCD OUTPUT
Info: NO FORCE DCD OUTPUT
Info: OUTPUT FILENAME        hydrate.0
Info: BINARY OUTPUT FILES WILL BE USED
Info: RESTART FILENAME       hydrate.0.restart
Info: RESTART FREQUENCY      500
Info: BINARY RESTART FILES WILL BE USED
Info: SWITCHING ACTIVE
Info: VDW FORCE SWITCHING ACTIVE
Info: SWITCHING ON           10
Info: SWITCHING OFF          12
Info: PAIRLIST DISTANCE      15
Info: PAIRLIST SHRINK RATE   0.01
Info: PAIRLIST GROW RATE     0.01
Info: PAIRLIST TRIGGER       0.3
Info: PAIRLISTS PER CYCLE    2
Info: PAIRLISTS ENABLED
Info: MARGIN                 0.525
Info: HYDROGEN GROUP CUTOFF  2.5
Info: PATCH DIMENSION        18.025
Info: ENERGY OUTPUT STEPS    1000
Info: CROSSTERM ENERGY INCLUDED IN DIHEDRAL
Info: TIMING OUTPUT STEPS    1000
Info: COLLECTIVE VARIABLES CALCULATION REQUESTED
Info: COLLECTIVE VARIABLES CONFIGURATION   colvars_quat.conf
Info: LANGEVIN DYNAMICS ACTIVE
Info: LANGEVIN TEMPERATURE   300.15
Info: LANGEVIN USING BBK INTEGRATOR
Info: LANGEVIN DAMPING COEFFICIENT IS 1 INVERSE PS
Info: LANGEVIN DYNAMICS NOT APPLIED TO HYDROGENS
Info: LANGEVIN PISTON PRESSURE CONTROL ACTIVE
Info:        TARGET PRESSURE IS 1.01325 BAR
Info:     OSCILLATION PERIOD IS 50 FS
Info:             DECAY TIME IS 25 FS
Info:     PISTON TEMPERATURE IS 300.15 K
Info:       PRESSURE CONTROL IS GROUP-BASED
Info:    INITIAL STRAIN RATE IS -3.157e-05 -3.157e-05 -3.157e-05
Info:       CELL FLUCTUATION IS ISOTROPIC
Info: PARTICLE MESH EWALD (PME) ACTIVE
Info: PME TOLERANCE               1e-06
Info: PME EWALD COEFFICIENT       0.257952
Info: PME INTERPOLATION ORDER     6
Info: PME GRID DIMENSIONS         150 120 96
Info: PME MAXIMUM GRID SPACING    1.5
Info: FULL ELECTROSTATIC EVALUATION FREQUENCY      1
Info: USING VERLET I (r-RESPA) MTS SCHEME.
Info: C1 SPLITTING OF LONG RANGE ELECTROSTATICS
Info: PLACING ATOMS IN PATCHES BY HYDROGEN GROUPS
Info: RIGID BONDS TO HYDROGEN : ALL
Info:         ERROR TOLERANCE : 1e-08
Info:          MAX ITERATIONS : 100
Info: RIGID WATER USING SETTLE ALGORITHM
Info: RANDOM NUMBER SEED     1527355622
Info: USE HYDROGEN BONDS?    NO
Info: COORDINATE PDB         ../step3_pbcsetup.pdb
Info: STRUCTURE FILE         ../step3_pbcsetup.xplor.ext.psf
Info: PARAMETER file: CHARMM format!
Info: PARAMETERS             toppar/par_all36m_prot.prm
Info: PARAMETERS             toppar/par_all36_na.prm
Info: PARAMETERS             toppar/par_all36_carb.prm
Info: PARAMETERS             toppar/par_all36_lipid.prm
Info: PARAMETERS             toppar/par_all36_cgenff.prm
Info: PARAMETERS             toppar/toppar_water_ions.str
Info: PARAMETERS             toppar/toppar_dum_noble_gases.str
Info: PARAMETERS             toppar/toppar_all36_prot_d_aminoacids.str
Info: PARAMETERS             toppar/toppar_all36_prot_fluoro_alkanes.str
Info: PARAMETERS             toppar/toppar_all36_prot_heme.str
Info: PARAMETERS             toppar/toppar_all36_prot_na_combined.str
Info: PARAMETERS             toppar/toppar_all36_prot_retinol.str
Info: PARAMETERS             toppar/toppar_all36_na_nad_ppi.str
Info: PARAMETERS             toppar/toppar_all36_na_rna_modified.str
Info: USING ARITHMETIC MEAN TO COMBINE L-J SIGMA PARAMETERS
Info: BINARY COORDINATES     step4_equilibration.coor
Info: SUMMARY OF PARAMETERS:
Info: 1106 BONDS
Info: 3449 ANGLES
Info: 8863 DIHEDRAL
Info: 257 IMPROPER
Info: 10 CROSSTERM
Info: 392 VDW
Info: 25 VDW_PAIRS
Info: 0 NBTHOLE_PAIRS
Info: STRUCTURE SUMMARY:
Info: 134021 ATOMS
Info: 91391 BONDS
Info: 54199 ANGLES
Info: 17365 DIHEDRALS
Info: 1075 IMPROPERS
Info: 392 CROSSTERMS
Info: 0 EXCLUSIONS
Info: 130513 RIGID BONDS
Info: 271550 DEGREES OF FREEDOM
Info: 45958 HYDROGEN GROUPS
Info: 4 ATOMS IN LARGEST HYDROGEN GROUP
Info: 45958 MIGRATION GROUPS
Info: 4 ATOMS IN LARGEST MIGRATION GROUP
Info: TOTAL MASS = 818341 amu
Info: TOTAL CHARGE = 30 e
Info: MASS DENSITY = 1.0261 g/cm^3
Info: ATOM DENSITY = 0.101198 atoms/A^3
Info: ADDED 162552 IMPLICIT EXCLUSIONS
Info: NONBONDED TABLE R-SQUARED SPACING: 0.0625
Info: NONBONDED TABLE SIZE: 769 POINTS
Info: REMOVING COM VELOCITY 0.00769913 0.00384287 -0.00052551
TCL: Running for 2500000 steps
ETITLE: TS BOND ANGLE DIHED IMPRP ELECT VDW BOUNDARY MISC KINETIC TOTAL TEMP POTENTIAL TOTAL3 TEMPAVG PRESSURE GPRESSURE VOLUME PRESSAVG GPRESSAVG
ENERGY: 0 1371.0150 3676.5668 4108.3268 199.8987 -503071.0190 45023.3819 0.0000 296.3636 81030.1163 -367365.3499 300.3219 -448395.4662 -367152.6042 300.3219 -114.8877 -115.9591 1324348.3296 -114.8877 -115.9591
ENERGY: 30000 1357.5571 3635.0494 4062.3751 211.9796 -504449.2446 45589.3554 0.0000 120.6589 80645.8251 -368826.4441 298.8976 -449472.2691 -368628.6555 298.7797 -23.0484 -23.3750 1322255.1631 0.4520 0.3777
ENERGY: 59000 1349.5424 3605.2500 4083.0769 205.7683 -503871.1937 45596.6774 0.0000 105.3430 80989.5296 -367936.0059 300.1715 -448925.5355 -367734.2600 299.1120 30.5056 29.8290 1323165.2371 0.1258 0.1837
ENERGY: 89000 1332.0652 3702.2994 4027.2584 210.1094 -502855.3311 44853.4609 0.0000 83.8448 80425.8347 -368220.4583 298.0823 -448646.2931 -368008.0316 299.1835 -155.6753 -158.4090 1323080.2335 -0.4585 -0.4683
ENERGY: 118000 1349.7159 3577.1092 4048.3460 215.0013 -503666.4096 45188.1177 0.0000 79.1171 80495.8693 -368713.1331 298.3418 -449209.0024 -368507.4055 298.9613 -81.1932 -81.9160 1322343.7373 1.3160 1.3721
ENERGY: 148000 1335.4324 3662.5247 4007.6041 203.9014 -503908.8287 45463.1924 0.0000 87.9227 80707.1116 -368441.1393 299.1248 -449148.2509 -368235.9577 299.7606 -30.9733 -30.8256 1322141.5292 1.5089 1.5379
